LAMMPS (29 Aug 2024 - Development - 6d634dc-modified)
units	metal
atom_style atomic
dimension 3
newton off

boundary p p p

read_data data.CPBr
Reading data file ...
  triclinic box = (0 0 0) to (23.496 23.496 97) with tilt (0 0 0)
  reading atoms ...
  1280 atoms

variable        p_id world   1

variable        temperature equal 860.0
variable        temperature2 equal 860.0
variable        tempDamp equal 100.0 # approx 0.1 ps

variable        pressure equal 1.00
variable        pressureDamp equal 500.0

variable        seed world 1428

mass            1 79.904     # Br
mass            2 132.904999 # Cs
mass            3 207.199997 # Pb

# allegro pair style
pair_style	nequip
pair_coeff	* * ./best.pth Br Cs Pb

neighbor 1.0 bin
neigh_modify delay 5 every 1

#write_dump all custom output.dump id type x y z fx fy fz
#
variable freq equal 100
#variable dt equal 0.001

thermo          100
thermo_style    custom step temp pe ke etotal press lx ly lz xy xz yz
restart         100 restart.0 restart.2

#minimize 0.0 1.0e-3 100 10000

# NVT

dump            myDump1 all atom 500 out.0.lammpstrj
fix             1 all temp/csvr 860 860 0.10000000000000000555 1428
fix             2 all nve
timestep        0.003
velocity        all create 860 1428 dist gaussian
run             1000

CITE-CITE-CITE-CITE-CITE-CITE-CITE-CITE-CITE-CITE-CITE-CITE-CITE

Your simulation uses code contributions which should be cited:

- Type Label Framework: https://doi.org/10.1021/acs.jpcb.3c08419

@Article{Gissinger24,
 author = {Jacob R. Gissinger, Ilia Nikiforov, Yaser Afshar, Brendon Waters, Moon-ki Choi, Daniel S. Karls, Alexander Stukowski, Wonpil Im, Hendrik Heinz, Axel Kohlmeyer, and Ellad B. Tadmor},
 title = {Type Label Framework for Bonded Force Fields in LAMMPS},
 journal = {J. Phys. Chem. B},
 year =    2024,
 volume =  128,
 number =  13,
 pages =   {3282--3297}
}

CITE-CITE-CITE-CITE-CITE-CITE-CITE-CITE-CITE-CITE-CITE-CITE-CITE

Step          Temp          PotEng         KinEng         TotEng         Press            Lx             Ly             Lz             Xy             Xz             Yz
0   860           -32240.825      142.1784      -32098.647      11422.834      23.496         23.496         97             0              0              0
Averages over the last 6 of 11 rows, steps 500 to 1000:
Temp PotEng KinEng TotEng Press Lx Ly Lz Xy Xz Yz
862.432 -32366.1 142.58 -32223.5 7413.76 23.496 23.496 97 0 0 0
Loop time of 98.2233 on 1 procs for 1000 steps with 1280 atoms

unfix           1
unfix           2
write_data      data.NVT
System init for write_data ...
undump          myDump1
reset_timestep  0

# NPT
dump            myDump3 all atom 10000 out.1.lammpstrj
fix             1 all temp/csvr 860 860 1.5 1428
fix             2 all nph z 1 1 $(500.0*dt)
fix             2 all nph z 1 1 1.5
fix             3 all momentum 10000 linear 1 1 1
run             500000000
Step          Temp          PotEng         KinEng         TotEng         Press            Lx             Ly             Lz             Xy             Xz             Yz
0   832.33531     -32365.057      137.60477     -32227.452      8384.1002      23.496         23.496         97             0              0              0
Averages over the last 8259 of 16517 rows, steps 825800 to 1651600:
Temp PotEng KinEng TotEng Press Lx Ly Lz Xy Xz Yz
861.182 -32408.2 142.374 -32265.8 2661.94 23.496 23.496 99.1826 0 0 0
