LAMMPS (29 Aug 2024 - Development - 6d634dc-modified)
units	metal
atom_style atomic
dimension 3
newton off

boundary p p p

read_data data.CPBr
Reading data file ...
  triclinic box = (0 0 0) to (23.496 23.496 97) with tilt (0 0 0)
  reading atoms ...
  1280 atoms

variable        p_id world   1

variable        temperature equal 950.0
variable        temperature2 equal 950.0
variable        tempDamp equal 100.0 # approx 0.1 ps

variable        pressure equal 1.00
variable        pressureDamp equal 500.0

variable        seed world 1428

mass            1 79.904     # Br
mass            2 132.904999 # Cs
mass            3 207.199997 # Pb

# allegro pair style
pair_style	nequip
pair_coeff	* * ./best.pth Br Cs Pb

neighbor 1.0 bin
neigh_modify delay 5 every 1

#write_dump all custom output.dump id type x y z fx fy fz
#
variable freq equal 100
#variable dt equal 0.001

thermo          100
thermo_style    custom step temp pe ke etotal press lx ly lz xy xz yz
restart         100 restart.0 restart.2

#minimize 0.0 1.0e-3 100 10000

# NVT

dump            myDump1 all atom 500 out.0.lammpstrj
fix             1 all temp/csvr 950 950 0.10000000000000000555 1428
fix             2 all nve
timestep        0.002
velocity        all create 950 1428 dist gaussian
run             10000

CITE-CITE-CITE-CITE-CITE-CITE-CITE-CITE-CITE-CITE-CITE-CITE-CITE

Your simulation uses code contributions which should be cited:

- Type Label Framework: https://doi.org/10.1021/acs.jpcb.3c08419

@Article{Gissinger24,
 author = {Jacob R. Gissinger, Ilia Nikiforov, Yaser Afshar, Brendon Waters, Moon-ki Choi, Daniel S. Karls, Alexander Stukowski, Wonpil Im, Hendrik Heinz, Axel Kohlmeyer, and Ellad B. Tadmor},
 title = {Type Label Framework for Bonded Force Fields in LAMMPS},
 journal = {J. Phys. Chem. B},
 year =    2024,
 volume =  128,
 number =  13,
 pages =   {3282--3297}
}

CITE-CITE-CITE-CITE-CITE-CITE-CITE-CITE-CITE-CITE-CITE-CITE-CITE

Step          Temp          PotEng         KinEng         TotEng         Press            Lx             Ly             Lz             Xy             Xz             Yz
0   950           -32240.851      157.05754     -32083.793      11717.274      23.496         23.496         97             0              0              0
Averages over the last 51 of 101 rows, steps 5000 to 10000:
Temp PotEng KinEng TotEng Press Lx Ly Lz Xy Xz Yz
946.54 -32357.2 156.486 -32200.8 6686.51 23.496 23.496 97 0 0 0
Loop time of 1284.55 on 1 procs for 10000 steps with 1280 atoms

unfix           1
unfix           2
write_data      data.NVT
System init for write_data ...
undump          myDump1
reset_timestep  0

# NPT
dump            myDump3 all atom 10000 out.1.lammpstrj
fix             1 all temp/csvr 950 950 1 1428
fix             2 all nph z 1 1 $(500.0*dt)
fix             2 all nph z 1 1 1
fix             3 all momentum 10000 linear 1 1 1
run             500000000
Step          Temp          PotEng         KinEng         TotEng         Press            Lx             Ly             Lz             Xy             Xz             Yz
0   950.20265     -32359.413      157.09104     -32202.322      6361.8685      23.496         23.496         97             0              0              0
Averages over the last 7935 of 15869 rows, steps 793400 to 1586800:
Temp PotEng KinEng TotEng Press Lx Ly Lz Xy Xz Yz
950.464 -32307.6 157.134 -32150.5 894.424 23.496 23.496 108.268 0 0 0
   1586900
