LAMMPS (29 Sep 2021 - Update 2)
units	metal
atom_style atomic
dimension 3
newton off

boundary p p p

#read_data structure.data
read_data data.CPI
Reading data file ...
  triclinic box = (0.0000000 0.0000000 0.0000000) to (41.736800 19.162000 35.522000) with tilt (0.0000000 0.0000000 0.0000000)
  reading atoms ...
  640 atoms

variable        p_id world   1

variable        temperature equal 400.0
variable        temperature2 equal 400.0
variable        tempDamp equal 100.0 # approx 0.1 ps

variable        pressure equal 1.00
variable        pressureDamp equal 500.0

variable        seed world 1428

mass            1 132.905  # Cs
mass            2 126.900  # I
mass            3 204.199  # Pb

# allegro pair style
pair_style	nequip
pair_coeff	* * ./best.pth Cs I Pb

neighbor 1.0 bin
neigh_modify delay 5 every 1

#write_dump all custom output.dump id type x y z fx fy fz
#
variable freq equal 100
#variable dt equal 0.001

thermo          100
thermo_style    custom step temp pe ke etotal press lx ly lz xy xz yz
restart         100 restart.0 restart.2

#minimize 0.0 1.0e-3 100 10000

# NVT

dump            myDump1 all atom 100 out.0.lammpstrj
fix             1 all temp/csvr 400 400 0.10000000000000000555 1428
fix             2 all nve
timestep        0.002
velocity        all create 400 1428 dist gaussian
run             1000
  update every 1 steps, delay 5 steps, check yes
Step Temp PotEng KinEng TotEng Press Lx Ly Lz Xy Xz Yz
0          400   -20437.746    33.038893   -20404.707    4142.4802      41.7368       19.162       35.522            0            0            0
Averages over the last 6 of 11 rows, steps 500 to 1000:
Temp PotEng KinEng TotEng Press Lx Ly Lz Xy Xz Yz
403.578 -20404.9 33.3344 -20371.5 7045.27 41.7368 19.162 35.522 0 0 0
Loop time of 117.083 on 1 procs for 1000 steps with 640 atoms

unfix           1
unfix           2
write_data      data.NVT
System init for write_data ...
undump          myDump1
reset_timestep  0

# NPT
dump            myDump3 all atom 100 out.1.lammpstrj
fix             1 all plumed plumedfile plumed.dat outfile plumed.log
fix             2 all temp/csvr 400 400 1 1428
fix             3 all nph tri 1 1 $(500.0*dt)
fix             3 all nph tri 1 1 1
fix             4 all momentum 10000 linear 1 1 1
run             50000000
Step Temp PotEng KinEng TotEng Press Lx Ly Lz Xy Xz Yz
0     386.4856   -20404.797    31.922641   -20372.874    6748.8335      41.7368       19.162       35.522            0            0            0
Averages over the last 4788 of 9576 rows, steps 478800 to 957500:
Temp PotEng KinEng TotEng Press Lx Ly Lz Xy Xz Yz
403.098 -20758.1 33.2948 -20724.8 21.9325 34.6174 24.5252 34.8323 -0.0913225 -6.19627 -7.037
